# generated using pymatgen
data_AlSi75H19(C2O19)8
_symmetry_space_group_name_H-M   'P 1'
_cell_length_a   29.46875082
_cell_length_b   13.99918437
_cell_length_c   12.46199008
_cell_angle_alpha   90.03707947
_cell_angle_beta   105.34013748
_cell_angle_gamma   90.27328398
_symmetry_Int_Tables_number   1
_chemical_formula_structural   AlSi75H19(C2O19)8
_chemical_formula_sum   'Al1 Si75 H19 C16 O152'
_cell_volume   4957.82064298
_cell_formula_units_Z   1
loop_
 _symmetry_equiv_pos_site_id
 _symmetry_equiv_pos_as_xyz
  1  'x, y, z'
loop_
 _atom_site_type_symbol
 _atom_site_label
 _atom_site_symmetry_multiplicity
 _atom_site_fract_x
 _atom_site_fract_y
 _atom_site_fract_z
 _atom_site_occupancy
  Al  Al0  1  0.44106080  0.61135274  0.09053739  1
  C  C1  1  0.48108997  0.55082440  0.56097567  1
  C  C2  1  0.47353849  0.60199922  0.44898159  1
  C  C3  1  0.50082736  0.69394080  0.45988132  1
  C  C4  1  0.53944598  0.70448891  0.41449253  1
  C  C5  1  0.56458522  0.78956050  0.42695634  1
  C  C6  1  0.55060584  0.86783026  0.48228443  1
  C  C7  1  0.51153789  0.85735885  0.52894805  1
  C  C8  1  0.49354885  0.94592225  0.57510820  1
  C  C9  1  0.52074238  0.96567029  0.69576903  1
  C  C10  1  0.49526713  0.02682786  0.49481909  1
  C  C11  1  0.51507913  0.11571194  0.52784580  1
  C  C12  1  0.52159107  0.18142095  0.44826910  1
  C  C13  1  0.50903026  0.15956361  0.33454255  1
  C  C14  1  0.48866287  0.07159689  0.29938292  1
  C  C15  1  0.48251504  0.00360018  0.37862586  1
  C  C16  1  0.48742769  0.77139388  0.51684271  1
  H  H17  1  0.51812201  0.53080370  0.59467326  1
  H  H18  1  0.45962154  0.48551737  0.55096610  1
  H  H19  1  0.47099597  0.59635414  0.62270670  1
  H  H20  1  0.43588826  0.61805810  0.41552386  1
  H  H21  1  0.48359194  0.55518312  0.38840996  1
  H  H22  1  0.54974018  0.64470148  0.36999200  1
  H  H23  1  0.59552156  0.79616247  0.39489333  1
  H  H24  1  0.57487511  0.92838675  0.50710953  1
  H  H25  1  0.45632933  0.93262967  0.57212851  1
  H  H26  1  0.51923493  0.90269250  0.74718812  1
  H  H27  1  0.50544798  0.02585899  0.73043645  1
  H  H28  1  0.55796829  0.98166991  0.70259095  1
  H  H29  1  0.52646376  0.13455569  0.61578559  1
  H  H30  1  0.53753358  0.25073515  0.47616123  1
  H  H31  1  0.51466674  0.21172310  0.27442405  1
  H  H32  1  0.47704756  0.05421480  0.21095562  1
  H  H33  1  0.51956270  0.93659529  0.40456084  1
  H  H34  1  0.45872525  0.94298419  0.34915282  1
  H  H35  1  0.45647235  0.76407681  0.54901377  1
  O  O36  1  0.41978850  0.68366376  0.74236377  1
  O  O37  1  0.91849101  0.18400176  0.74292388  1
  O  O38  1  0.58900973  0.66516312  0.26729038  1
  O  O39  1  0.08417885  0.17895749  0.25994463  1
  O  O40  1  0.58104139  0.31205908  0.25147590  1
  O  O41  1  0.08044959  0.81889046  0.25756539  1
  O  O42  1  0.41531231  0.32637093  0.73542262  1
  O  O43  1  0.91642250  0.82486081  0.73768422  1
  O  O44  1  0.50749782  0.64596502  0.85158284  1
  O  O45  1  0.00674176  0.14775903  0.84916754  1
  O  O46  1  0.49818672  0.64620438  0.16342420  1
  O  O47  1  0.99545008  0.14619699  0.15312422  1
  O  O48  1  0.49351479  0.34628074  0.14252891  1
  O  O49  1  0.99324169  0.85602502  0.14689008  1
  O  O50  1  0.50526811  0.35563737  0.84163566  1
  O  O51  1  0.00510741  0.85718576  0.84832391  1
  O  O52  1  0.44741737  0.50339754  0.78300639  1
  O  O53  1  0.94617216  0.00338973  0.78734304  1
  O  O54  1  0.55440281  0.49253441  0.20792595  1
  O  O55  1  0.05383791  0.99973119  0.21236423  1
  O  O56  1  0.43711551  0.61653500  0.94838138  1
  O  O57  1  0.93808647  0.11980120  0.94985101  1
  O  O58  1  0.56577966  0.61518795  0.05607360  1
  O  O59  1  0.06313178  0.11598038  0.05149839  1
  O  O60  1  0.56349578  0.37597957  0.04599429  1
  O  O61  1  0.06299499  0.88414731  0.05000729  1
  O  O62  1  0.43736738  0.38533218  0.94409142  1
  O  O63  1  0.93528330  0.88596753  0.94585459  1
  O  O64  1  0.39851592  0.68595914  0.11987309  1
  O  O65  1  0.90605527  0.18462058  0.11597836  1
  O  O66  1  0.59691665  0.68111278  0.88965891  1
  O  O67  1  0.09667914  0.18417066  0.88892810  1
  O  O68  1  0.59606210  0.31932653  0.87850709  1
  O  O69  1  0.09551260  0.82029811  0.88332172  1
  O  O70  1  0.40404697  0.30680033  0.09957562  1
  O  O71  1  0.90346367  0.82029088  0.11279896  1
  O  O72  1  0.43177741  0.49103344  0.12048838  1
  O  O73  1  0.93284786  0.00198584  0.11297580  1
  O  O74  1  0.56818326  0.49987466  0.88763890  1
  O  O75  1  0.06709033  0.00162333  0.88495015  1
  O  O76  1  0.21790904  0.00313269  0.82490233  1
  O  O77  1  0.71855532  0.50664805  0.82345837  1
  O  O78  1  0.78439922  0.00223983  0.17783538  1
  O  O79  1  0.27934584  0.48622430  0.17536911  1
  O  O80  1  0.29726877  0.90999334  0.83899258  1
  O  O81  1  0.79762174  0.40941918  0.84814752  1
  O  O82  1  0.70513798  0.90637342  0.16377294  1
  O  O83  1  0.19720973  0.40210586  0.17233694  1
  O  O84  1  0.70371232  0.09321385  0.15578863  1
  O  O85  1  0.20189852  0.58891981  0.15431509  1
  O  O86  1  0.29730070  0.09731905  0.82894075  1
  O  O87  1  0.79987772  0.59554989  0.83146609  1
  O  O88  1  0.25250172  0.99849847  0.64991973  1
  O  O89  1  0.75631540  0.49298353  0.65452598  1
  O  O90  1  0.74590963  0.00591582  0.34681894  1
  O  O91  1  0.24388484  0.50353992  0.34709992  1
  O  O92  1  0.19079680  0.40478884  0.77493768  1
  O  O93  1  0.69344976  0.90406292  0.79192019  1
  O  O94  1  0.80924915  0.40349180  0.21296277  1
  O  O95  1  0.29962108  0.90773774  0.22831355  1
  O  O96  1  0.80704609  0.59342249  0.21780435  1
  O  O97  1  0.30693014  0.09631208  0.21844033  1
  O  O98  1  0.19616508  0.59396808  0.78979491  1
  O  O99  1  0.69618406  0.09340340  0.77843058  1
  O  O100  1  0.26991189  0.49260437  0.76997870  1
  O  O101  1  0.77112690  0.98809098  0.77212419  1
  O  O102  1  0.73228864  0.49070053  0.22964778  1
  O  O103  1  0.22581084  0.01943791  0.22580196  1
  O  O104  1  0.24269610  0.48591513  0.95787255  1
  O  O105  1  0.74492696  0.00596314  0.96000879  1
  O  O106  1  0.75766360  0.49961526  0.04020590  1
  O  O107  1  0.25618971  0.00070170  0.04388639  1
  O  O108  1  0.27424109  0.53584672  0.56311883  1
  O  O109  1  0.77344957  0.03223696  0.56354848  1
  O  O110  1  0.72607027  0.46841718  0.43892975  1
  O  O111  1  0.22636433  0.96355253  0.43372768  1
  O  O112  1  0.32983935  0.40608545  0.67952109  1
  O  O113  1  0.83261263  0.90778854  0.68076045  1
  O  O114  1  0.65680608  0.41610796  0.27025370  1
  O  O115  1  0.15975291  0.90617287  0.26080377  1
  O  O116  1  0.67750788  0.60049331  0.30890435  1
  O  O117  1  0.16453318  0.08696125  0.32667733  1
  O  O118  1  0.34175912  0.58858803  0.73693783  1
  O  O119  1  0.84039710  0.09030372  0.73532520  1
  O  O120  1  0.20217221  0.41691649  0.48709254  1
  O  O121  1  0.70251880  0.91250993  0.47855304  1
  O  O122  1  0.80847826  0.39819219  0.54359134  1
  O  O123  1  0.30814474  0.90147678  0.54964127  1
  O  O124  1  0.79862961  0.58593344  0.52017288  1
  O  O125  1  0.29542289  0.08802899  0.51354584  1
  O  O126  1  0.19207446  0.60376104  0.45257222  1
  O  O127  1  0.69166601  0.10050107  0.45297645  1
  O  O128  1  0.32523879  0.72910919  0.19733329  1
  O  O129  1  0.83387018  0.22329412  0.19741022  1
  O  O130  1  0.66620709  0.72372602  0.80016229  1
  O  O131  1  0.16501894  0.22445231  0.79608721  1
  O  O132  1  0.66857221  0.27152815  0.80129199  1
  O  O133  1  0.16857394  0.77190211  0.80739905  1
  O  O134  1  0.33771889  0.27339423  0.20247476  1
  O  O135  1  0.83417589  0.77274641  0.20151231  1
  O  O136  1  0.23630542  0.76788628  0.19593345  1
  O  O137  1  0.74386032  0.26619754  0.18146507  1
  O  O138  1  0.75699875  0.76457363  0.82284608  1
  O  O139  1  0.25521431  0.26693259  0.81088755  1
  O  O140  1  0.75915938  0.23429929  0.81201806  1
  O  O141  1  0.25772687  0.73693256  0.80073510  1
  O  O142  1  0.24628708  0.24112018  0.17664929  1
  O  O143  1  0.74309752  0.73237847  0.18004795  1
  O  O144  1  0.30492800  0.77663923  0.38285248  1
  O  O145  1  0.81017090  0.27976111  0.37476890  1
  O  O146  1  0.69320005  0.78330918  0.62814023  1
  O  O147  1  0.18900437  0.27511965  0.61829355  1
  O  O148  1  0.69246824  0.22171039  0.62143171  1
  O  O149  1  0.18491485  0.71522329  0.62252708  1
  O  O150  1  0.30813531  0.22486261  0.37528030  1
  O  O151  1  0.80723992  0.72064889  0.37563988  1
  O  O152  1  0.34206275  0.72666478  0.58901682  1
  O  O153  1  0.84228327  0.22329041  0.58076398  1
  O  O154  1  0.65840714  0.74918925  0.41645854  1
  O  O155  1  0.15687760  0.26076245  0.40292561  1
  O  O156  1  0.65668151  0.27555652  0.41671551  1
  O  O157  1  0.15681547  0.77735217  0.41873200  1
  O  O158  1  0.34373242  0.24312663  0.59054597  1
  O  O159  1  0.84579651  0.74430015  0.58839673  1
  O  O160  1  0.24906601  0.75444853  0.51603331  1
  O  O161  1  0.74971697  0.24954849  0.49356692  1
  O  O162  1  0.75216801  0.75128504  0.50759627  1
  O  O163  1  0.25009597  0.25382219  0.49920885  1
  O  O164  1  0.34731931  0.76799320  0.80014680  1
  O  O165  1  0.84550854  0.27211911  0.78931737  1
  O  O166  1  0.65578448  0.76122856  0.20240590  1
  O  O167  1  0.15766382  0.23567232  0.19166348  1
  O  O168  1  0.65811149  0.23576453  0.21074464  1
  O  O169  1  0.15041714  0.72256085  0.21024402  1
  O  O170  1  0.34490702  0.25147778  0.80464827  1
  O  O171  1  0.84490161  0.75071420  0.80176032  1
  O  O172  1  0.32182079  0.77638585  0.99128217  1
  O  O173  1  0.82964518  0.27262004  0.99000986  1
  O  O174  1  0.67324798  0.77956508  0.00566070  1
  O  O175  1  0.17426926  0.28099198  0.00241747  1
  O  O176  1  0.67108139  0.22652085  0.00794816  1
  O  O177  1  0.16866039  0.72599300  0.01283300  1
  O  O178  1  0.32202574  0.22253040  0.99305478  1
  O  O179  1  0.82845827  0.71905756  0.99566683  1
  O  O180  1  0.31605011  0.59600962  0.04186071  1
  O  O181  1  0.82739703  0.08937627  0.04071064  1
  O  O182  1  0.67885273  0.59578588  0.96479439  1
  O  O183  1  0.17727855  0.09578676  0.96119507  1
  O  O184  1  0.67777164  0.40722852  0.95631265  1
  O  O185  1  0.17653897  0.90811161  0.96088642  1
  O  O186  1  0.32555244  0.40679134  0.04256414  1
  O  O187  1  0.82103304  0.90215799  0.03777718  1
  Si  Si188  1  0.45270432  0.61218190  0.83615134  1
  Si  Si189  1  0.95257940  0.11334249  0.83270859  1
  Si  Si190  1  0.54928395  0.60588823  0.17215987  1
  Si  Si191  1  0.04929182  0.11010747  0.16920748  1
  Si  Si192  1  0.54695188  0.38383610  0.16112941  1
  Si  Si193  1  0.04774331  0.88998409  0.16633822  1
  Si  Si194  1  0.45142188  0.39391883  0.82760062  1
  Si  Si195  1  0.95111385  0.89289394  0.83032335  1
  Si  Si196  1  0.94312954  0.11238514  0.08271993  1
  Si  Si197  1  0.55866637  0.60973343  0.92266304  1
  Si  Si198  1  0.05880908  0.11183297  0.91889706  1
  Si  Si199  1  0.55759756  0.38868034  0.91344967  1
  Si  Si200  1  0.05800583  0.89107712  0.91694759  1
  Si  Si201  1  0.44125282  0.38757908  0.07793460  1
  Si  Si202  1  0.94108173  0.89164764  0.07927897  1
  Si  Si203  1  0.29189619  0.79447276  0.24980925  1
  Si  Si204  1  0.79861257  0.29307014  0.24122604  1
  Si  Si205  1  0.70273612  0.79373139  0.76124345  1
  Si  Si206  1  0.20067541  0.29320722  0.75121580  1
  Si  Si207  1  0.70419970  0.20584259  0.75431450  1
  Si  Si208  1  0.20284668  0.70473289  0.75671809  1
  Si  Si209  1  0.29956346  0.20903004  0.24269478  1
  Si  Si210  1  0.79719035  0.70466172  0.24282503  1
  Si  Si211  1  0.30101150  0.78961236  0.50897036  1
  Si  Si212  1  0.80217097  0.28795197  0.49793729  1
  Si  Si213  1  0.70169914  0.79896991  0.50661060  1
  Si  Si214  1  0.20030199  0.30175075  0.50170279  1
  Si  Si215  1  0.69771797  0.21162145  0.49604385  1
  Si  Si216  1  0.19652645  0.71253894  0.50273949  1
  Si  Si217  1  0.29921156  0.20255749  0.49530182  1
  Si  Si218  1  0.80026604  0.70020927  0.49785830  1
  Si  Si219  1  0.30623028  0.79621047  0.85887745  1
  Si  Si220  1  0.80743643  0.29600940  0.85906413  1
  Si  Si221  1  0.69454897  0.79388918  0.13889052  1
  Si  Si222  1  0.19480948  0.29027308  0.13701809  1
  Si  Si223  1  0.69438942  0.20676017  0.13928528  1
  Si  Si224  1  0.19020330  0.70177389  0.14394546  1
  Si  Si225  1  0.30462478  0.20995348  0.85890614  1
  Si  Si226  1  0.80668358  0.70798540  0.86179333  1
  Si  Si227  1  0.34305799  0.69666941  0.08869588  1
  Si  Si228  1  0.84903091  0.19325470  0.08606463  1
  Si  Si229  1  0.65305305  0.69510500  0.91497972  1
  Si  Si230  1  0.15350637  0.19663711  0.91238044  1
  Si  Si231  1  0.65269041  0.30597155  0.91077657  1
  Si  Si232  1  0.15260470  0.80590481  0.91608018  1
  Si  Si233  1  0.34803564  0.30305240  0.08460917  1
  Si  Si234  1  0.84695257  0.80327298  0.08728264  1
  Si  Si235  1  0.36318712  0.69271721  0.71749903  1
  Si  Si236  1  0.86132770  0.19327169  0.71070983  1
  Si  Si237  1  0.64381626  0.69328741  0.29747552  1
  Si  Si238  1  0.14136265  0.19130429  0.29559513  1
  Si  Si239  1  0.63790615  0.30930350  0.28764086  1
  Si  Si240  1  0.13748754  0.80536356  0.28853065  1
  Si  Si241  1  0.35898308  0.30718836  0.70349390  1
  Si  Si242  1  0.85973619  0.80661406  0.70224697  1
  Si  Si243  1  0.26671939  0.00184130  0.78552797  1
  Si  Si244  1  0.76815602  0.50120036  0.78898626  1
  Si  Si245  1  0.73435536  0.00198052  0.21179840  1
  Si  Si246  1  0.23059835  0.49557148  0.21221962  1
  Si  Si247  1  0.22528831  0.49520942  0.82337716  1
  Si  Si248  1  0.77640778  0.49723965  0.17520474  1
  Si  Si249  1  0.27234839  0.00493019  0.17947651  1
  Si  Si250  1  0.72635746  0.99848066  0.82508932  1
  Si  Si251  1  0.30401931  0.50573299  0.68805663  1
  Si  Si252  1  0.69790518  0.49436159  0.31164364  1
  Si  Si253  1  0.19468839  0.99423121  0.31161275  1
  Si  Si254  1  0.80390456  0.00409439  0.68780775  1
  Si  Si255  1  0.22803145  0.51396208  0.46178098  1
  Si  Si256  1  0.77264362  0.48749554  0.54003638  1
  Si  Si257  1  0.27107796  0.98924304  0.53835208  1
  Si  Si258  1  0.72788760  0.01163335  0.45929642  1
  Si  Si259  1  0.29213017  0.49497007  0.05552805  1
  Si  Si260  1  0.70751565  0.50216399  0.94528946  1
  Si  Si261  1  0.20698513  0.00168647  0.94651948  1
  Si  Si262  1  0.79462231  0.99978938  0.05533594  1
