# generated using pymatgen
data_AlSi75H19(C4O37)4
_symmetry_space_group_name_H-M   'P 1'
_cell_length_a   28.99600000
_cell_length_b   13.96800000
_cell_length_c   12.44900000
_cell_angle_alpha   90.00000000
_cell_angle_beta   104.91000000
_cell_angle_gamma   90.00000000
_symmetry_Int_Tables_number   1
_chemical_formula_structural   AlSi75H19(C4O37)4
_chemical_formula_sum   'Al1 Si75 H19 C16 O148'
_cell_volume   4872.28607835
_cell_formula_units_Z   1
loop_
 _symmetry_equiv_pos_site_id
 _symmetry_equiv_pos_as_xyz
  1  'x, y, z'
loop_
 _atom_site_type_symbol
 _atom_site_label
 _atom_site_symmetry_multiplicity
 _atom_site_fract_x
 _atom_site_fract_y
 _atom_site_fract_z
 _atom_site_occupancy
  Al  Al0  1  0.45210000  0.60990000  0.83300000  1
  Si  Si1  1  0.95210000  0.10990000  0.83300000  1
  Si  Si2  1  0.54790000  0.60990000  0.16700000  1
  Si  Si3  1  0.04790000  0.10990000  0.16700000  1
  Si  Si4  1  0.54790000  0.39010000  0.16700000  1
  Si  Si5  1  0.04790000  0.89010000  0.16700000  1
  Si  Si6  1  0.45210000  0.39010000  0.83300000  1
  Si  Si7  1  0.95210000  0.89010000  0.83300000  1
  Si  Si8  1  0.44010000  0.60990000  0.07770000  1
  Si  Si9  1  0.94010000  0.10990000  0.07770000  1
  Si  Si10  1  0.55990000  0.60990000  0.92230000  1
  Si  Si11  1  0.05990000  0.10990000  0.92230000  1
  Si  Si12  1  0.55990000  0.39010000  0.92230000  1
  Si  Si13  1  0.05990000  0.89010000  0.92230000  1
  Si  Si14  1  0.44010000  0.39010000  0.07770000  1
  Si  Si15  1  0.94010000  0.89010000  0.07770000  1
  Si  Si16  1  0.29540000  0.79540000  0.24220000  1
  Si  Si17  1  0.79540000  0.29540000  0.24220000  1
  Si  Si18  1  0.70460000  0.79540000  0.75780000  1
  Si  Si19  1  0.20460000  0.29540000  0.75780000  1
  Si  Si20  1  0.70460000  0.20460000  0.75780000  1
  Si  Si21  1  0.20460000  0.70460000  0.75780000  1
  Si  Si22  1  0.29540000  0.20460000  0.24220000  1
  Si  Si23  1  0.79540000  0.70460000  0.24220000  1
  Si  Si24  1  0.30100000  0.79410000  0.49820000  1
  Si  Si25  1  0.80100000  0.29410000  0.49820000  1
  Si  Si26  1  0.69900000  0.79410000  0.50180000  1
  Si  Si27  1  0.19900000  0.29410000  0.50180000  1
  Si  Si28  1  0.69900000  0.20590000  0.50180000  1
  Si  Si29  1  0.19900000  0.70590000  0.50180000  1
  Si  Si30  1  0.30100000  0.20590000  0.49820000  1
  Si  Si31  1  0.80100000  0.70590000  0.49820000  1
  Si  Si32  1  0.30720000  0.79380000  0.85690000  1
  Si  Si33  1  0.80720000  0.29380000  0.85690000  1
  Si  Si34  1  0.69280000  0.79380000  0.14310000  1
  Si  Si35  1  0.19280000  0.29380000  0.14310000  1
  Si  Si36  1  0.69280000  0.20620000  0.14310000  1
  Si  Si37  1  0.19280000  0.70620000  0.14310000  1
  Si  Si38  1  0.30720000  0.20620000  0.85690000  1
  Si  Si39  1  0.80720000  0.70620000  0.85690000  1
  Si  Si40  1  0.34530000  0.69500000  0.08270000  1
  Si  Si41  1  0.84530000  0.19500000  0.08270000  1
  Si  Si42  1  0.65470000  0.69500000  0.91730000  1
  Si  Si43  1  0.15470000  0.19500000  0.91730000  1
  Si  Si44  1  0.65470000  0.30500000  0.91730000  1
  Si  Si45  1  0.15470000  0.80500000  0.91730000  1
  Si  Si46  1  0.34530000  0.30500000  0.08270000  1
  Si  Si47  1  0.84530000  0.80500000  0.08270000  1
  Si  Si48  1  0.36240000  0.69570000  0.70760000  1
  Si  Si49  1  0.86240000  0.19570000  0.70760000  1
  Si  Si50  1  0.63760000  0.69570000  0.29240000  1
  Si  Si51  1  0.13760000  0.19570000  0.29240000  1
  Si  Si52  1  0.63760000  0.30430000  0.29240000  1
  Si  Si53  1  0.13760000  0.80430000  0.29240000  1
  Si  Si54  1  0.36240000  0.30430000  0.70760000  1
  Si  Si55  1  0.86240000  0.80430000  0.70760000  1
  Si  Si56  1  0.26600000  0.00000000  0.78470000  1
  Si  Si57  1  0.76600000  0.50000000  0.78470000  1
  Si  Si58  1  0.73400000  0.00000000  0.21530000  1
  Si  Si59  1  0.23400000  0.50000000  0.21530000  1
  Si  Si60  1  0.22470000  0.50000000  0.82700000  1
  Si  Si61  1  0.77530000  0.50000000  0.17300000  1
  Si  Si62  1  0.27530000  0.00000000  0.17300000  1
  Si  Si63  1  0.72470000  0.00000000  0.82700000  1
  Si  Si64  1  0.30460000  0.50000000  0.69360000  1
  Si  Si65  1  0.69540000  0.50000000  0.30640000  1
  Si  Si66  1  0.19540000  0.00000000  0.30640000  1
  Si  Si67  1  0.80460000  0.00000000  0.69360000  1
  Si  Si68  1  0.22780000  0.50000000  0.46120000  1
  Si  Si69  1  0.77220000  0.50000000  0.53880000  1
  Si  Si70  1  0.27220000  0.00000000  0.53880000  1
  Si  Si71  1  0.72780000  0.00000000  0.46120000  1
  Si  Si72  1  0.29210000  0.50000000  0.05360000  1
  Si  Si73  1  0.70790000  0.50000000  0.94640000  1
  Si  Si74  1  0.20790000  0.00000000  0.94640000  1
  Si  Si75  1  0.79210000  0.00000000  0.05360000  1
  O  O76  1  0.41940000  0.67970000  0.74110000  1
  O  O77  1  0.91940000  0.17970000  0.74110000  1
  O  O78  1  0.58060000  0.67970000  0.25890000  1
  O  O79  1  0.08060000  0.17970000  0.25890000  1
  O  O80  1  0.58060000  0.32030000  0.25890000  1
  O  O81  1  0.08060000  0.82030000  0.25890000  1
  O  O82  1  0.41940000  0.32030000  0.74110000  1
  O  O83  1  0.91940000  0.82030000  0.74110000  1
  O  O84  1  0.50760000  0.62900000  0.84150000  1
  O  O85  1  0.00760000  0.12900000  0.84150000  1
  O  O86  1  0.49240000  0.62900000  0.15850000  1
  O  O87  1  0.99240000  0.12900000  0.15850000  1
  O  O88  1  0.49240000  0.37100000  0.15850000  1
  O  O89  1  0.99240000  0.87100000  0.15850000  1
  O  O90  1  0.50760000  0.37100000  0.84150000  1
  O  O91  1  0.00760000  0.87100000  0.84150000  1
  O  O92  1  0.43940000  0.50000000  0.79880000  1
  O  O93  1  0.93940000  0.00000000  0.79880000  1
  O  O94  1  0.56060000  0.50000000  0.20120000  1
  O  O95  1  0.06060000  0.00000000  0.20120000  1
  O  O96  1  0.44140000  0.63100000  0.95140000  1
  O  O97  1  0.94140000  0.13100000  0.95140000  1
  O  O98  1  0.55860000  0.63100000  0.04860000  1
  O  O99  1  0.05860000  0.13100000  0.04860000  1
  O  O100  1  0.55860000  0.36900000  0.04860000  1
  O  O101  1  0.05860000  0.86900000  0.04860000  1
  O  O102  1  0.44140000  0.36900000  0.95140000  1
  O  O103  1  0.94140000  0.86900000  0.95140000  1
  O  O104  1  0.40230000  0.68090000  0.11120000  1
  O  O105  1  0.90230000  0.18090000  0.11120000  1
  O  O106  1  0.59770000  0.68090000  0.88880000  1
  O  O107  1  0.09770000  0.18090000  0.88880000  1
  O  O108  1  0.59770000  0.31910000  0.88880000  1
  O  O109  1  0.09770000  0.81910000  0.88880000  1
  O  O110  1  0.40230000  0.31910000  0.11120000  1
  O  O111  1  0.90230000  0.81910000  0.11120000  1
  O  O112  1  0.42520000  0.50000000  0.08900000  1
  O  O113  1  0.92520000  0.00000000  0.08900000  1
  O  O114  1  0.57480000  0.50000000  0.91100000  1
  O  O115  1  0.07480000  0.00000000  0.91100000  1
  O  O116  1  0.71730000  0.50000000  0.82440000  1
  O  O117  1  0.28270000  0.50000000  0.17560000  1
  O  O118  1  0.29570000  0.90600000  0.83550000  1
  O  O119  1  0.79570000  0.40600000  0.83550000  1
  O  O120  1  0.70430000  0.90600000  0.16450000  1
  O  O121  1  0.20430000  0.40600000  0.16450000  1
  O  O122  1  0.70430000  0.09400000  0.16450000  1
  O  O123  1  0.20430000  0.59400000  0.16450000  1
  O  O124  1  0.29570000  0.09400000  0.83550000  1
  O  O125  1  0.79570000  0.59400000  0.83550000  1
  O  O126  1  0.75460000  0.50000000  0.65120000  1
  O  O127  1  0.24540000  0.50000000  0.34880000  1
  O  O128  1  0.19410000  0.40480000  0.78530000  1
  O  O129  1  0.69410000  0.90480000  0.78530000  1
  O  O130  1  0.80590000  0.40480000  0.21470000  1
  O  O131  1  0.30590000  0.90480000  0.21470000  1
  O  O132  1  0.80590000  0.59520000  0.21470000  1
  O  O133  1  0.30590000  0.09520000  0.21470000  1
  O  O134  1  0.19410000  0.59520000  0.78530000  1
  O  O135  1  0.69410000  0.09520000  0.78530000  1
  O  O136  1  0.27080000  0.50000000  0.77760000  1
  O  O137  1  0.77080000  0.00000000  0.77760000  1
  O  O138  1  0.72920000  0.50000000  0.22240000  1
  O  O139  1  0.22920000  0.00000000  0.22240000  1
  O  O140  1  0.24180000  0.50000000  0.96080000  1
  O  O141  1  0.74180000  0.00000000  0.96080000  1
  O  O142  1  0.75820000  0.50000000  0.03920000  1
  O  O143  1  0.25820000  0.00000000  0.03920000  1
  O  O144  1  0.27360000  0.50000000  0.56640000  1
  O  O145  1  0.77360000  0.00000000  0.56640000  1
  O  O146  1  0.72640000  0.50000000  0.43360000  1
  O  O147  1  0.22640000  0.00000000  0.43360000  1
  O  O148  1  0.33790000  0.40620000  0.71610000  1
  O  O149  1  0.83790000  0.90620000  0.71610000  1
  O  O150  1  0.66210000  0.40620000  0.28390000  1
  O  O151  1  0.16210000  0.90620000  0.28390000  1
  O  O152  1  0.66210000  0.59380000  0.28390000  1
  O  O153  1  0.16210000  0.09380000  0.28390000  1
  O  O154  1  0.33790000  0.59380000  0.71610000  1
  O  O155  1  0.83790000  0.09380000  0.71610000  1
  O  O156  1  0.19670000  0.40550000  0.46700000  1
  O  O157  1  0.69670000  0.90550000  0.46700000  1
  O  O158  1  0.80330000  0.40550000  0.53300000  1
  O  O159  1  0.30330000  0.90550000  0.53300000  1
  O  O160  1  0.80330000  0.59450000  0.53300000  1
  O  O161  1  0.30330000  0.09450000  0.53300000  1
  O  O162  1  0.19670000  0.59450000  0.46700000  1
  O  O163  1  0.69670000  0.09450000  0.46700000  1
  O  O164  1  0.32880000  0.72540000  0.19190000  1
  O  O165  1  0.82880000  0.22540000  0.19190000  1
  O  O166  1  0.67120000  0.72540000  0.80810000  1
  O  O167  1  0.17120000  0.22540000  0.80810000  1
  O  O168  1  0.67120000  0.27460000  0.80810000  1
  O  O169  1  0.17120000  0.77460000  0.80810000  1
  O  O170  1  0.32880000  0.27460000  0.19190000  1
  O  O171  1  0.82880000  0.77460000  0.19190000  1
  O  O172  1  0.24010000  0.76930000  0.19020000  1
  O  O173  1  0.74010000  0.26930000  0.19020000  1
  O  O174  1  0.75990000  0.76930000  0.80980000  1
  O  O175  1  0.25990000  0.26930000  0.80980000  1
  O  O176  1  0.75990000  0.23070000  0.80980000  1
  O  O177  1  0.25990000  0.73070000  0.80980000  1
  O  O178  1  0.24010000  0.23070000  0.19020000  1
  O  O179  1  0.74010000  0.73070000  0.19020000  1
  O  O180  1  0.30850000  0.78300000  0.37510000  1
  O  O181  1  0.80850000  0.28300000  0.37510000  1
  O  O182  1  0.69150000  0.78300000  0.62490000  1
  O  O183  1  0.19150000  0.28300000  0.62490000  1
  O  O184  1  0.69150000  0.21700000  0.62490000  1
  O  O185  1  0.19150000  0.71700000  0.62490000  1
  O  O186  1  0.30850000  0.21700000  0.37510000  1
  O  O187  1  0.80850000  0.71700000  0.37510000  1
  O  O188  1  0.34340000  0.73760000  0.58370000  1
  O  O189  1  0.84340000  0.23760000  0.58370000  1
  O  O190  1  0.65660000  0.73760000  0.41630000  1
  O  O191  1  0.15660000  0.23760000  0.41630000  1
  O  O192  1  0.65660000  0.26240000  0.41630000  1
  O  O193  1  0.15660000  0.76240000  0.41630000  1
  O  O194  1  0.34340000  0.26240000  0.58370000  1
  O  O195  1  0.84340000  0.76240000  0.58370000  1
  O  O196  1  0.25000000  0.75000000  0.50000000  1
  O  O197  1  0.75000000  0.25000000  0.50000000  1
  O  O198  1  0.75000000  0.75000000  0.50000000  1
  O  O199  1  0.25000000  0.25000000  0.50000000  1
  O  O200  1  0.34790000  0.76700000  0.79510000  1
  O  O201  1  0.84790000  0.26700000  0.79510000  1
  O  O202  1  0.65210000  0.76700000  0.20490000  1
  O  O203  1  0.15210000  0.26700000  0.20490000  1
  O  O204  1  0.65210000  0.23300000  0.20490000  1
  O  O205  1  0.15210000  0.73300000  0.20490000  1
  O  O206  1  0.34790000  0.23300000  0.79510000  1
  O  O207  1  0.84790000  0.73300000  0.79510000  1
  O  O208  1  0.32810000  0.77530000  0.98810000  1
  O  O209  1  0.82810000  0.27530000  0.98810000  1
  O  O210  1  0.67190000  0.77530000  0.01190000  1
  O  O211  1  0.17190000  0.27530000  0.01190000  1
  O  O212  1  0.67190000  0.22470000  0.01190000  1
  O  O213  1  0.17190000  0.72470000  0.01190000  1
  O  O214  1  0.32810000  0.22470000  0.98810000  1
  O  O215  1  0.82810000  0.72470000  0.98810000  1
  O  O216  1  0.32120000  0.59430000  0.03640000  1
  O  O217  1  0.82120000  0.09430000  0.03640000  1
  O  O218  1  0.67880000  0.59430000  0.96360000  1
  O  O219  1  0.17880000  0.09430000  0.96360000  1
  O  O220  1  0.67880000  0.40570000  0.96360000  1
  O  O221  1  0.17880000  0.90570000  0.96360000  1
  O  O222  1  0.32120000  0.40570000  0.03640000  1
  O  O223  1  0.82120000  0.90570000  0.03640000  1
  C  C224  1  0.38672334  0.85556340  0.38787126  1
  C  C225  1  0.43607537  0.87226274  0.36714870  1
  C  C226  1  0.47534538  0.83029220  0.45810572  1
  C  C227  1  0.49188600  0.73839626  0.44881840  1
  C  C228  1  0.52771926  0.69496272  0.53318716  1
  C  C229  1  0.54759432  0.74285487  0.63092453  1
  C  C230  1  0.53183467  0.83674491  0.64482804  1
  C  C231  1  0.49547129  0.88321604  0.55882088  1
  C  C232  1  0.48253967  0.98756852  0.57051211  1
  C  C233  1  0.49692157  0.02558100  0.68986351  1
  C  C234  1  0.50391555  0.04873506  0.49398129  1
  C  C235  1  0.54961469  0.03162515  0.48057044  1
  C  C236  1  0.56867406  0.09140240  0.41307040  1
  C  C237  1  0.54224493  0.16864236  0.35868634  1
  C  C238  1  0.49665553  0.18612944  0.37192273  1
  C  C239  1  0.47761075  0.12640651  0.43918865  1
  H  H240  1  0.38397943  0.88725632  0.46688913  1
  H  H241  1  0.35901307  0.88810546  0.32080130  1
  H  H242  1  0.37898359  0.77869898  0.39015854  1
  H  H243  1  0.43731062  0.83842139  0.28826282  1
  H  H244  1  0.44238667  0.94904731  0.35833571  1
  H  H245  1  0.47660576  0.69839249  0.37257159  1
  H  H246  1  0.53939006  0.62241964  0.52106086  1
  H  H247  1  0.57504972  0.71030417  0.69745450  1
  H  H248  1  0.54735064  0.87678688  0.72077319  1
  H  H249  1  0.48558045  0.83316644  0.63772688  1
  H  H250  1  0.44349155  0.99256128  0.53981629  1
  H  H251  1  0.48212097  0.98229446  0.74702657  1
  H  H252  1  0.48319304  0.09871153  0.69051508  1
  H  H253  1  0.53592006  0.02983260  0.72160423  1
  H  H254  1  0.57093171  0.97142828  0.52264743  1
  H  H255  1  0.60435017  0.07759004  0.40303611  1
  H  H256  1  0.55711132  0.21519285  0.30573622  1
  H  H257  1  0.47575299  0.24634326  0.32944462  1
  H  H258  1  0.44181799  0.14022333  0.44907924  1
