# generated using pymatgen
data_AlSi75H27(C5O38)4
_symmetry_space_group_name_H-M   'P 1'
_cell_length_a   29.46875082
_cell_length_b   13.99918437
_cell_length_c   12.46199008
_cell_angle_alpha   90.03707947
_cell_angle_beta   105.34013748
_cell_angle_gamma   90.27328398
_symmetry_Int_Tables_number   1
_chemical_formula_structural   AlSi75H27(C5O38)4
_chemical_formula_sum   'Al1 Si75 H27 C20 O152'
_cell_volume   4957.82064298
_cell_formula_units_Z   1
loop_
 _symmetry_equiv_pos_site_id
 _symmetry_equiv_pos_as_xyz
  1  'x, y, z'
loop_
 _atom_site_type_symbol
 _atom_site_label
 _atom_site_symmetry_multiplicity
 _atom_site_fract_x
 _atom_site_fract_y
 _atom_site_fract_z
 _atom_site_occupancy
  Al  Al0  1  0.44561117  0.60792269  0.09194305  1
  C  C1  1  0.57161656  0.92007742  0.33013732  1
  C  C2  1  0.53262628  0.95244738  0.38283766  1
  C  C3  1  0.53203031  0.90225193  0.49021572  1
  C  C4  1  0.54445559  0.94916837  0.59343042  1
  C  C5  1  0.56628820  0.04988922  0.60729479  1
  C  C6  1  0.61320400  0.05510469  0.57576399  1
  C  C7  1  0.57084137  0.07987784  0.72550582  1
  C  C8  1  0.60452638  0.02743700  0.80970458  1
  C  C9  1  0.60567852  0.03801478  0.92424626  1
  C  C10  1  0.57066338  0.09019056  0.95216174  1
  C  C11  1  0.53663912  0.13664994  0.86847288  1
  C  C12  1  0.53616740  0.13340304  0.75507293  1
  C  C13  1  0.49785240  0.18266645  0.66896783  1
  C  C14  1  0.45504625  0.11855195  0.61889916  1
  C  C15  1  0.53704070  0.90178802  0.68910790  1
  C  C16  1  0.52515435  0.80416247  0.68499553  1
  C  C17  1  0.51637964  0.75649646  0.58473302  1
  C  C18  1  0.51568888  0.80625036  0.48619078  1
  C  C19  1  0.49066911  0.75938820  0.37900875  1
  C  C20  1  0.43802534  0.78350974  0.35820403  1
  H  H21  1  0.60678220  0.93084701  0.38648064  1
  H  H22  1  0.56973832  0.96058167  0.25355231  1
  H  H23  1  0.56820565  0.84398448  0.30851359  1
  H  H24  1  0.53493613  0.03005605  0.39612217  1
  H  H25  1  0.49834798  0.93995304  0.32263706  1
  H  H26  1  0.54143906  0.09806269  0.55165834  1
  H  H27  1  0.62982845  0.12457236  0.60138983  1
  H  H28  1  0.60801002  0.04866054  0.48596755  1
  H  H29  1  0.63760543  0.99883943  0.61563730  1
  H  H30  1  0.63627941  1.00157182  0.78987040  1
  H  H31  1  0.63337421  1.00339345  0.98765344  1
  H  H32  1  0.56985250  0.09739321  0.03876258  1
  H  H33  1  0.50922625  0.17744234  0.89170196  1
  H  H34  1  0.48625681  0.24472537  0.70747921  1
  H  H35  1  0.51226576  0.21083295  0.60237046  1
  H  H36  1  0.42813299  0.15933843  0.55904974  1
  H  H37  1  0.43915505  0.09254649  0.68392147  1
  H  H38  1  0.46418328  0.05600629  0.57583490  1
  H  H39  1  0.58054462  0.94843647  0.77578203  1
  H  H40  1  0.52476976  0.94275864  0.75102442  1
  H  H41  1  0.51955384  0.76896666  0.75813254  1
  H  H42  1  0.50517755  0.68184533  0.57908626  1
  H  H43  1  0.49521967  0.68159703  0.38495541  1
  H  H44  1  0.50330540  0.78231342  0.30809383  1
  H  H45  1  0.42405853  0.75612067  0.42571680  1
  H  H46  1  0.43246396  0.86121030  0.35367889  1
  H  H47  1  0.41831407  0.75155955  0.27960938  1
  O  O48  1  0.42546741  0.68387987  0.74469563  1
  O  O49  1  0.92438315  0.18372869  0.74652820  1
  O  O50  1  0.59284375  0.66928689  0.26953857  1
  O  O51  1  0.08972397  0.17916903  0.26175003  1
  O  O52  1  0.58765181  0.31397195  0.25582593  1
  O  O53  1  0.08708767  0.81899713  0.26034072  1
  O  O54  1  0.42292246  0.32376244  0.74139806  1
  O  O55  1  0.92327571  0.82292759  0.74077195  1
  O  O56  1  0.51227523  0.64602449  0.85686938  1
  O  O57  1  0.01239479  0.14660088  0.85082526  1
  O  O58  1  0.50250337  0.64647231  0.16421479  1
  O  O59  1  0.00050651  0.14336883  0.15760365  1
  O  O60  1  0.50057315  0.34453070  0.14415725  1
  O  O61  1  1.00014254  0.85444273  0.15032445  1
  O  O62  1  0.51228893  0.36014451  0.84737914  1
  O  O63  1  0.01230661  0.85895236  0.84807167  1
  O  O64  1  0.45270156  0.50333262  0.78377912  1
  O  O65  1  0.95144194  0.00279689  0.78999477  1
  O  O66  1  0.55973521  0.49408260  0.21168073  1
  O  O67  1  0.06038007  0.99921607  0.21365941  1
  O  O68  1  0.44148557  0.61327648  0.95011857  1
  O  O69  1  0.94392851  0.11919007  0.95303169  1
  O  O70  1  0.57110398  0.61700144  0.06034930  1
  O  O71  1  0.06783781  0.11770745  0.05372766  1
  O  O72  1  0.57090300  0.37856220  0.05026864  1
  O  O73  1  0.06922694  0.88268868  0.05174196  1
  O  O74  1  0.44384094  0.38604140  0.94806214  1
  O  O75  1  0.94316988  0.88306608  0.94818024  1
  O  O76  1  0.40222809  0.68057238  0.11913561  1
  O  O77  1  0.91042405  0.17849027  0.11899307  1
  O  O78  1  0.60104416  0.68745445  0.89455828  1
  O  O79  1  0.10217660  0.18627266  0.89268450  1
  O  O80  1  0.60335828  0.32589465  0.88039226  1
  O  O81  1  0.10278452  0.82223931  0.88555551  1
  O  O82  1  0.41090525  0.30387223  0.10230601  1
  O  O83  1  0.91062712  0.81499895  0.11173009  1
  O  O84  1  0.43892655  0.48823709  0.12680789  1
  O  O85  1  0.93850047  0.99824338  0.11366971  1
  O  O86  1  0.57487613  0.50426912  0.89163415  1
  O  O87  1  0.07427725  0.00292760  0.88976290  1
  O  O88  1  0.22525219  0.00587643  0.82664337  1
  O  O89  1  0.72769400  0.51436035  0.82208672  1
  O  O90  1  0.78726636  -0.00091389  0.17518397  1
  O  O91  1  0.28409471  0.48477889  0.17517189  1
  O  O92  1  0.30470111  0.91257008  0.84333811  1
  O  O93  1  0.80870199  0.42239781  0.85238645  1
  O  O94  1  0.70624685  0.90822387  0.16660266  1
  O  O95  1  0.20251979  0.39943862  0.17441394  1
  O  O96  1  0.70781875  0.09398704  0.15038205  1
  O  O97  1  0.20659035  0.58634663  0.15533055  1
  O  O98  1  0.30515951  0.09878425  0.83003209  1
  O  O99  1  0.80735727  0.60751435  0.82250112  1
  O  O100  1  0.26015512  0.99871326  0.65253898  1
  O  O101  1  0.76409760  0.49627080  0.65333543  1
  O  O102  1  0.74951310  0.00995284  0.34500354  1
  O  O103  1  0.24957026  0.50103525  0.34793766  1
  O  O104  1  0.19653274  0.40416911  0.77060263  1
  O  O105  1  0.69808694  0.91213632  0.77791723  1
  O  O106  1  0.81093484  0.40947679  0.21251541  1
  O  O107  1  0.30406742  0.90627376  0.22654921  1
  O  O108  1  0.81242635  0.59892376  0.22269252  1
  O  O109  1  0.31331846  0.09464525  0.22426246  1
  O  O110  1  0.20548654  0.59292786  0.79342499  1
  O  O111  1  0.71109665  0.09880059  0.78080502  1
  O  O112  1  0.27729293  0.48686686  0.77045284  1
  O  O113  1  0.78060104  0.97917757  0.76884274  1
  O  O114  1  0.73469323  0.50380153  0.22491189  1
  O  O115  1  0.23136869  0.02006793  0.22798573  1
  O  O116  1  0.24919947  0.47679451  0.95670038  1
  O  O117  1  0.75180006  0.99452326  0.95600136  1
  O  O118  1  0.76301081  0.51148564  0.04042847  1
  O  O119  1  0.26203795  0.00564015  0.04601580  1
  O  O120  1  0.28108296  0.53296716  0.56335020  1
  O  O121  1  0.78012333  0.03690618  0.56197339  1
  O  O122  1  0.73369698  0.46751548  0.43703031  1
  O  O123  1  0.23284379  0.96605347  0.43652212  1
  O  O124  1  0.34059011  0.41100101  0.68172065  1
  O  O125  1  0.84483493  0.92063476  0.66991554  1
  O  O126  1  0.66380846  0.41523028  0.26895821  1
  O  O127  1  0.16705158  0.90375586  0.26401006  1
  O  O128  1  0.67982231  0.59871930  0.32053283  1
  O  O129  1  0.16916955  0.08467641  0.32835970  1
  O  O130  1  0.34614983  0.59268525  0.73861620  1
  O  O131  1  0.84327835  0.10039645  0.73826115  1
  O  O132  1  0.20870751  0.41469332  0.49022642  1
  O  O133  1  0.70828597  0.91799853  0.48288660  1
  O  O134  1  0.81646904  0.40293335  0.54368688  1
  O  O135  1  0.31446775  0.90115265  0.54926881  1
  O  O136  1  0.80368683  0.59053698  0.51426409  1
  O  O137  1  0.30338384  0.08791114  0.51713279  1
  O  O138  1  0.19887042  0.60151628  0.45534005  1
  O  O139  1  0.69840758  0.10594236  0.45747697  1
  O  O140  1  0.32975527  0.72795372  0.19516834  1
  O  O141  1  0.83925972  0.23221664  0.19573686  1
  O  O142  1  0.66611987  0.73630791  0.79520687  1
  O  O143  1  0.16979707  0.22503373  0.79676754  1
  O  O144  1  0.67448892  0.26797015  0.80378436  1
  O  O145  1  0.17458379  0.76824364  0.80858929  1
  O  O146  1  0.34475285  0.27060750  0.20568986  1
  O  O147  1  0.84061754  0.77688183  0.20168186  1
  O  O148  1  0.24167191  0.76431261  0.19961081  1
  O  O149  1  0.74914511  0.26654556  0.18976516  1
  O  O150  1  0.75804582  0.76641841  0.82365489  1
  O  O151  1  0.26025740  0.26516341  0.81336552  1
  O  O152  1  0.76670554  0.25176605  0.81830975  1
  O  O153  1  0.26404211  0.74060178  0.80008788  1
  O  O154  1  0.25310397  0.24066550  0.18124935  1
  O  O155  1  0.74954030  0.73952354  0.18065541  1
  O  O156  1  0.31201274  0.77640276  0.38288954  1
  O  O157  1  0.81826486  0.28448472  0.37619675  1
  O  O158  1  0.69649656  0.78230461  0.62347888  1
  O  O159  1  0.19525779  0.27059987  0.61895282  1
  O  O160  1  0.70194051  0.22980822  0.62564661  1
  O  O161  1  0.19200947  0.71311179  0.62416107  1
  O  O162  1  0.31584052  0.22522458  0.37937997  1
  O  O163  1  0.81317840  0.73026924  0.37692132  1
  O  O164  1  0.34898830  0.72784088  0.58879831  1
  O  O165  1  0.84992816  0.22773616  0.58207366  1
  O  O166  1  0.66336793  0.75865920  0.41026966  1
  O  O167  1  0.16352264  0.25964724  0.40307931  1
  O  O168  1  0.66386296  0.27983524  0.42100820  1
  O  O169  1  0.16332354  0.77496771  0.42054891  1
  O  O170  1  0.35031765  0.24438483  0.59402274  1
  O  O171  1  0.85052366  0.74667784  0.59207143  1
  O  O172  1  0.25563044  0.75289024  0.51529666  1
  O  O173  1  0.75748629  0.25400463  0.49327504  1
  O  O174  1  0.75714752  0.75546940  0.50663861  1
  O  O175  1  0.25667764  0.25235990  0.50120719  1
  O  O176  1  0.35388236  0.77195022  0.80013541  1
  O  O177  1  0.85273616  0.28196777  0.78774221  1
  O  O178  1  0.66060791  0.75296912  0.19636604  1
  O  O179  1  0.16395467  0.23181890  0.19253656  1
  O  O180  1  0.66303121  0.23255020  0.21495910  1
  O  O181  1  0.15562979  0.72080008  0.21109416  1
  O  O182  1  0.35028848  0.25605820  0.80721180  1
  O  O183  1  0.84587724  0.77312183  0.80059884  1
  O  O184  1  0.32807385  0.77586666  0.99081946  1
  O  O185  1  0.83983591  0.28058669  0.99118391  1
  O  O186  1  0.67917051  0.78322866  0.00456886  1
  O  O187  1  0.18162733  0.27820132  0.00481180  1
  O  O188  1  0.67704713  0.23441121  0.01284258  1
  O  O189  1  0.17492966  0.72483876  0.01442783  1
  O  O190  1  0.32799795  0.22397023  0.99486326  1
  O  O191  1  0.83118201  0.72763210  0.99302890  1
  O  O192  1  0.31884705  0.59513516  0.03854056  1
  O  O193  1  0.82650119  0.09984958  0.03823285  1
  O  O194  1  0.68275323  0.60022828  0.95352191  1
  O  O195  1  0.18138290  0.09331069  0.95867671  1
  O  O196  1  0.68617398  0.41169130  0.95032448  1
  O  O197  1  0.18531391  0.90544302  0.96137720  1
  O  O198  1  0.33397657  0.40776896  0.04997455  1
  O  O199  1  0.83286171  0.91166978  0.04555541  1
  Si  Si200  1  0.45721212  0.61135556  0.83839694  1
  Si  Si201  1  0.95837204  0.11253577  0.83580053  1
  Si  Si202  1  0.55401595  0.60724609  0.17522905  1
  Si  Si203  1  0.05467150  0.10984492  0.17182864  1
  Si  Si204  1  0.55363162  0.38519689  0.16480641  1
  Si  Si205  1  0.05440452  0.88934703  0.16851207  1
  Si  Si206  1  0.45761147  0.39505378  0.83175739  1
  Si  Si207  1  0.95818583  0.89211404  0.83213926  1
  Si  Si208  1  0.94857487  0.10913667  0.08552931  1
  Si  Si209  1  0.56417371  0.61277810  0.92748855  1
  Si  Si210  1  0.06459625  0.11279662  0.92192899  1
  Si  Si211  1  0.56493624  0.39317413  0.91801874  1
  Si  Si212  1  0.06497790  0.89198260  0.91930565  1
  Si  Si213  1  0.44780273  0.38542973  0.08195650  1
  Si  Si214  1  0.94815719  0.88845486  0.08090552  1
  Si  Si215  1  0.29690463  0.79320005  0.24952537  1
  Si  Si216  1  0.80388467  0.29824263  0.24282747  1
  Si  Si217  1  0.70531714  0.79839189  0.75556100  1
  Si  Si218  1  0.20589620  0.29150869  0.75109133  1
  Si  Si219  1  0.71415839  0.21295606  0.75846443  1
  Si  Si220  1  0.20979814  0.70381660  0.75824983  1
  Si  Si221  1  0.30617915  0.20781454  0.24670365  1
  Si  Si222  1  0.80353644  0.71117094  0.24474945  1
  Si  Si223  1  0.30719824  0.78949826  0.50822829  1
  Si  Si224  1  0.81019251  0.29254215  0.49899733  1
  Si  Si225  1  0.70682359  0.80332353  0.50460779  1
  Si  Si226  1  0.20652580  0.29945343  0.50303045  1
  Si  Si227  1  0.70599007  0.21731010  0.49943594  1
  Si  Si228  1  0.20318014  0.71054882  0.50409259  1
  Si  Si229  1  0.30601223  0.20249007  0.49835135  1
  Si  Si230  1  0.80573742  0.70541755  0.49775342  1
  Si  Si231  1  0.31250144  0.79840905  0.85912079  1
  Si  Si232  1  0.81679586  0.30810823  0.86196715  1
  Si  Si233  1  0.69959094  0.79495497  0.13859634  1
  Si  Si234  1  0.20111182  0.28770387  0.13937422  1
  Si  Si235  1  0.69985285  0.20865173  0.14266171  1
  Si  Si236  1  0.19539018  0.69941170  0.14530703  1
  Si  Si237  1  0.31033328  0.21137622  0.86078497  1
  Si  Si238  1  0.81022400  0.71887756  0.85896851  1
  Si  Si239  1  0.34673992  0.69415884  0.08628263  1
  Si  Si240  1  0.85427290  0.19820046  0.08577167  1
  Si  Si241  1  0.65705462  0.70104831  0.91223150  1
  Si  Si242  1  0.15892306  0.19604720  0.91343109  1
  Si  Si243  1  0.65999865  0.31043126  0.91178662  1
  Si  Si244  1  0.15950831  0.80474499  0.91749002  1
  Si  Si245  1  0.35465031  0.30213924  0.08819876  1
  Si  Si246  1  0.85390458  0.80709784  0.08802788  1
  Si  Si247  1  0.36859114  0.69502941  0.71782049  1
  Si  Si248  1  0.86781974  0.19921421  0.71269995  1
  Si  Si249  1  0.64823518  0.69427503  0.29774694  1
  Si  Si250  1  0.14696478  0.18966330  0.29655046  1
  Si  Si251  1  0.64461972  0.31011631  0.29094296  1
  Si  Si252  1  0.14384035  0.80373972  0.29068717  1
  Si  Si253  1  0.36584277  0.30856414  0.70654917  1
  Si  Si254  1  0.86620039  0.81465501  0.70107180  1
  Si  Si255  1  0.27401051  0.00363281  0.78781344  1
  Si  Si256  1  0.77730864  0.50992035  0.78746247  1
  Si  Si257  1  0.73770217  0.00273021  0.21029618  1
  Si  Si258  1  0.23550216  0.49336077  0.21308425  1
  Si  Si259  1  0.23229879  0.49155359  0.82276244  1
  Si  Si260  1  0.78032523  0.50569603  0.17543293  1
  Si  Si261  1  0.27768000  0.00531015  0.18141922  1
  Si  Si262  1  0.73636402  0.99773496  0.82104625  1
  Si  Si263  1  0.31087189  0.50586112  0.68879632  1
  Si  Si264  1  0.70319230  0.49665138  0.31295192  1
  Si  Si265  1  0.20049444  0.99381658  0.31407319  1
  Si  Si266  1  0.81213359  0.00865478  0.68468680  1
  Si  Si267  1  0.23430545  0.51135512  0.46325636  1
  Si  Si268  1  0.77987433  0.49088479  0.53812146  1
  Si  Si269  1  0.27797414  0.98975289  0.54016210  1
  Si  Si270  1  0.73384070  0.01618910  0.46049384  1
  Si  Si271  1  0.29736951  0.49209053  0.05616883  1
  Si  Si272  1  0.71445245  0.50918045  0.94098430  1
  Si  Si273  1  0.21334053  0.00220903  0.94706175  1
  Si  Si274  1  0.80027548  0.00169263  0.05578218  1
